<?xml version="1.0"?>
<!-- 
194 Cars leaving the Computer Science Building and campus of the University of Erlangen-Nuremberg
Copyright (C) 2008 Christoph Sommer <christoph.sommer@informatik.uni-erlangen.de>
Licensed under the Creative Commons Attribution-ShareAlike 2.0 license <http://creativecommons.org/licenses/by-sa/2.0/>
-->
<routes>
   <vType id="vtype0" accel="5.6" decel="4.5" sigma="0" length="3" minGap="5" maxSpeed="50" departSpeed="max"/>
   <vType id="vtype1" accel="0.6" decel="4.5" sigma="1" length="3" minGap="10" maxSpeed="50" departSpeed="random"/>
   <route id="route0" edges="-39539626 -5445204#2 -5445204#1 113939244#2 -126606716 23339459 30405358#1 85355912 85355911#0 85355911#1 30405356 5931612 30350450#0 30350450#1 30350450#2 4006702#0 4006702#1 4900043 4900041#1"/>
   <route id="route1" edges="-5445204#3 -5445204#2 -5445204#1 113939244#2 -126606716 23339459 30405358#1 85355912 85355911#0 85355911#1 30405356 5931612 30350450#0 30350450#1 30350450#2 4006702#0 4006702#1 4900043 4900041#1" color="1,2,0"/>
   <route id="route2" edges="30405358#0 30405358#1 85355912 85355911#0 85355911#1 30405356 5931612 30350450#0 30350450#1 30350450#2 4006702#0 4006702#1 4900043 4900041#1"/>
   <route id="route3eastbound" edges="4319352#1 44069041#0 44069041#1 4400949 31982182#0"/>
   <route id="route3westbound" edges="85355911#0 85355911#1 30405356 5931612 30350450#0 30350450#1 30350450#2 4319353"/>
   <route id="route3westbound_m" edges="30350450#1 30350450#2 4319353"/>
   
   <flow id="flow0" type="vtype0" route="route3eastbound" begin="0" period="1" number="4" departLane="0"/>
   <!--
   <flow id="flow1" type="vtype1" route="route3westbound_m" begin="0" period="10" number="5" departSpeed="random" departLane="random"/>
   <flow id="flow2" type="vtype0" route="route3westbound" begin="1" period="10" number="5" departSpeed="random" departLane="random"/>
   	
   -->
</routes>
