[General]
cmdenv-express-mode = true
cmdenv-autoflush = true
cmdenv-status-frequency = 10000000s

#tkenv-default-config = debug
#tkenv-default-run = 1
fname-append-host = false
parallel-simulation = false
record-eventlog = false
repeat = 10
seed-set = 1	
simtime-scale = -12
tkenv-image-path = bitmaps

ned-path = ../../src/base;../../src/modules;../../examples;
network = Highway_tvws

##########################################################
#            Simulation parameters                       #
##########################################################
debug-on-errors = true
print-undisposed = false

sim-time-limit = 85s

**.module-eventlog-recording = false

**.vector-recording = true
**.vector-record-eventnumbers = false


**.mobility.vector-recording = false
**.debug = true
**.coreDebug = true
*.world.recordVectors = false

*.playgroundSizeX = 1625m
*.playgroundSizeY = 916m
*.playgroundSizeZ = 50m


##########################################################
# Annotation parameters                                  #
##########################################################
*.annotations.draw = false

##########################################################
# Obstacle parameters                                    #
##########################################################
*.obstacles.debug = false

##########################################################
#            WorldUtilityStats parameters                #
##########################################################
*.world.useTorus = false
*.world.use2D = false
*.world.bitrate = 6E+6bps

##########################################################
#            TraCIScenarioManager parameters             #
##########################################################
*.manager.updateInterval = 0.1s
*.manager.host = "localhost"
*.manager.port = 9999
*.manager.moduleType = "org.mixim.examples.veins_tvws.Car_tvws"
*.manager.moduleName = "node"
*.manager.moduleDisplayString = "i=sartre-car-s;is=vs"
*.manager.autoShutdown = true
*.manager.margin = 25
*.manager.launchConfig = xmldoc("bernado.launchd.xml")

##########################################################
#            Connection manager parameters               #
##########################################################
*.connectionManagerDsrc.pMax = 200mW # 20mW for pure dsrc
*.connectionManagerDsrc.sat = -94dBm  # -94dBm for pure dsrc
*.connectionManagerDsrc.alpha = 3.5
*.connectionManagerDsrc.carrierFrequency = 5.890e9 Hz
*.connectionManagerDsrc.sendDirect = false
*.connectionManagerDsrc.drawMaxIntfDist = true

*.connectionManager2450.pMax = 200mW # 20mW for pure dsrc
*.connectionManager2450.sat = -94dBm  # -94dBm for pure dsrc
*.connectionManager2450.alpha = 3.0
*.connectionManager2450.carrierFrequency = 2.450e9 Hz
*.connectionManager2450.sendDirect = false
*.connectionManager2450.drawMaxIntfDist = false

*.connectionManagerTvws.pMax = 0.001mW # 20mW for pure dsrc
*.connectionManagerTvws.sat = -94dBm  # -94dBm for pure dsrc
*.connectionManagerTvws.alpha = 3.0
*.connectionManagerTvws.carrierFrequency = 600e6 Hz
*.connectionManagerTvws.sendDirect = false
*.connectionManagerTvws.drawMaxIntfDist = false


##########################################################
#                    WaveAppLayer                        #
##########################################################
#*.node[*].applType = "SiChenWaveApplLayer"

*.node[*].appl.sendBeacons = true
*.node[*].appl.dataOnSch = true
*.node[*].appl.sendData = false
*.node[*].appl.sendRelayMsg = true
*.node[*].appl.relayMsgInterval = 0.01s

*.node[*].appl.beaconPriority = 3
*.node[*].appl.dataPriority = 2

*.node[0..3].appl.lowestSCH = 1
*.node[0..3].appl.highestSCH = 9
*.node[0].appl.channelSelectionMode = "learning"
*.node[0].appl.explorationRate_epsilon = 0.1
*.node[0].appl.learningRate_alpha = 0.1
#*.node[0].appl.tripNo = ${repetition}
*.node[1..3].appl.autoChannelSelection = false



##########################################################
#            11p specific parameters                     #
#                                                        #
#                   WAVE NIC-Settings                    #
##########################################################
*.node[*].nicDsrc.connectionManagerName = "connectionManagerDsrc"

*.node[0..3].nicDsrc.mac.serviceChannel = 1 # 1,2,3,4


*.node[*].nicDsrc.mac.txPower = 200mW
*.node[*].nicDsrc.mac.bitrate = 6Mbps

*.node[*].nicDsrc.phy.sensitivity = -94dBm
*.node[*].nicDsrc.phy.maxTXPower = 200mW
*.node[*].nicDsrc.phy.useThermalNoise = true
*.node[*].nicDsrc.phy.thermalNoise = -95dBm
*.node[*].nicDsrc.phy.recordStats = false
*.node[*].nicDsrc.phy.decider = xmldoc("config_Dsrc.xml")
*.node[*].nicDsrc.phy.analogueModels = xmldoc("config_Dsrc.xml")
*.node[*].nicDsrc.phy.usePropagationDelay = true
*.node[*].nicDsrc.phy.nbRadioChannels = 184
*.node[*].nicDsrc.phy.initialRadioChannel = 178

##########################################################
#            WiFi specific parameters                    #
#                                                        #
#                    WIFI NIC-Settings                   #
##########################################################

*.node[*].nic2450.connectionManagerName = "connectionManager2450"
*.node[*].nic2450.phy.usePropagationDelay = true
*.node[*].nic2450.phy.thermalNoise = -95dBm  # [dBm]
*.node[*].nic2450.phy.analogueModels = xmldoc("config_2450.xml")
*.node[*].nic2450.phy.decider = xmldoc("config_2450.xml")
*.node[*].nic2450.phy.sensitivity = -119.5dBm  # [dBm]
*.node[*].nic2450.phy.maxTXPower = 110.11mW
*.node[*].nic2450.phy.initialRadioState = 0
*.node[*].nic2450.phy.useThermalNoise = true
*.node[0].nic2450.phy.initialRadioChannel = 5
*.node[1].nic2450.phy.initialRadioChannel = 4
*.node[2].nic2450.phy.initialRadioChannel = 7
*.node[3].nic2450.phy.initialRadioChannel = 10
##########################################################
#                      Mobility                          #
##########################################################
*.node[*].mobilityType = "TraCIMobility"
*.node[*].mobility.debug = false
*.node[*].mobility.x = 0
*.node[*].mobility.y = 0
*.node[*].mobility.z = 1.895
#*.node[10].mobility.accidentCount = 1
#*.node[10].mobility.accidentStart = 75s
#*.node[10].mobility.accidentDuration = 30s

##############################################################################
#       Parameters for the Mobility Module of 802.11 hosts                   #
##############################################################################

*.numHosts = 10
*.host[*].**.debug = false

# if set to 0 the MN does not move
*.host[*].mobility.speed = 0mps
*.host[*].mobility.updateInterval = 50s
*.host[*].mobility.z = -1

# starting position for the hosts "-1" means random staring point

###################### APs for erlangen #############################
#*.host[0].mobility.x = 700
#*.host[0].mobility.y = 1380
#
#*.host[1].mobility.x = 800
#*.host[1].mobility.y = 1380
#
#*.host[2].mobility.x = 600
#*.host[2].mobility.y = 1280
#
#*.host[3].mobility.x = 900
#*.host[3].mobility.y = 1280
#
#*.host[4].mobility.x = 1000
#*.host[4].mobility.y = 1380
#
#*.host[5].mobility.x = 700
#*.host[5].mobility.y = 1300
#
#*.host[6].mobility.x = 1000
#*.host[6].mobility.y = 1280
#
#*.host[7].mobility.x = 1100
#*.host[7].mobility.y = 1380
#
#*.host[8].mobility.x = 800
#*.host[8].mobility.y = 1280
#
#*.host[9].mobility.x = 900
#*.host[9].mobility.y = 1380
####################### END of APs for erlangen ######################

###################### APs for bernado #############################
*.host[0].mobility.x = 620
*.host[0].mobility.y = 440

*.host[1].mobility.x = 540
*.host[1].mobility.y = 400

*.host[2].mobility.x = 580
*.host[2].mobility.y = 480

*.host[3].mobility.x = 800
*.host[3].mobility.y = 280

*.host[4].mobility.x = 673
*.host[4].mobility.y = 654

*.host[5].mobility.x = 520
*.host[5].mobility.y = 570

*.host[6].mobility.x = 376
*.host[6].mobility.y = 493

*.host[7].mobility.x = 850
*.host[7].mobility.y = 560

*.host[8].mobility.x = 800
*.host[8].mobility.y = 280

*.host[9].mobility.x = 900
*.host[9].mobility.y = 380
####################### END of APs for bernado ######################


##############################################################################
#       Parameters for the Host                                              #
##############################################################################

##############################################################################
#       Parameters for the Application Layer                                 #
##############################################################################
# v defined in ned
#*.host[*].applicationType = "TrafficGen"
*.host[*].appl.packetsPerPacketTime = 0.5
*.host[*].appl.headerLength = 4096bit
*.host[*].appl.packetTime = 0.008688s
*.host[*].appl.usePoissonArrival = true
#*.host[*].appl.mu = 0.02s
*.host[*].appl.burstSize = 1

*.host[0..2].appl.mu = 0.02s # volatile mu
*.host[3..6].appl.mu = 0.02s
*.host[7..9].appl.mu = 0.02s

#*.host[*].appl.mu = exponential(10s)
##############################################################################
#       Parameters for the Network Layer                                     #
##############################################################################
*.host[*].netwl.headerLength = 32bit# in bits
*.host[*].netwl.stats = false

##############################################################################
#       Parameters for ARP
##############################################################################
	
##############################################################################
#       Parameters for the Mac Layer                                         #
##############################################################################
*.host[*].nic.connectionManagerName = "connectionManager2450"
*.host[*].nic.mac.headerLength = 272 bit
*.host[*].nic.mac.queueLength = 14 # Maximal number of packets in the queue, default(10)
*.host[*].nic.mac.bitrate = 1.1E+6bps# in bits/second
*.host[*].nic.mac.autoBitrate = false

### values if no fading is modelled, gives at most 1% packet error rate
*.host[*].nic.mac.snr2Mbit = 1.46dB  # [dB]
*.host[*].nic.mac.snr5Mbit = 2.6dB  # [dB]
*.host[*].nic.mac.snr11Mbit = 5.68dB  # [dB]

*.host[*].nic.mac.rtsCtsThreshold = 400
*.host[*].nic.mac.neighborhoodCacheSize = 30
*.host[*].nic.mac.neighborhoodCacheMaxAge = 100s  # [s]

*.host[*].nic.mac.txPower = 110.11mW  # [mW]

##############################################################################
#       Parameters for the Phy                                               #
##############################################################################
*.host[*].nic.phy.usePropagationDelay = true
*.host[*].nic.phy.thermalNoise = -95dBm  # [dBm]
*.host[*].nic.phy.analogueModels = xmldoc("config_2450.xml")
*.host[*].nic.phy.decider = xmldoc("config_2450.xml")
*.host[*].nic.phy.sensitivity = -96dBm  # [dBm]
*.host[*].nic.phy.maxTXPower = 110.11mW
*.host[*].nic.phy.initialRadioState = 0
*.host[*].nic.phy.useThermalNoise = true
*.host[*].nic.phy.nbRadioChannels = 14

*.host[0].nic.phy.initialRadioChannel = 1
*.host[1].nic.phy.initialRadioChannel = 6
*.host[2].nic.phy.initialRadioChannel = 3
*.host[3].nic.phy.initialRadioChannel = 1
*.host[4].nic.phy.initialRadioChannel = 9
*.host[5].nic.phy.initialRadioChannel = 10
*.host[6].nic.phy.initialRadioChannel = 10
*.host[7].nic.phy.initialRadioChannel = 7
#*.host[8].nic.phy.initialRadioChannel = 10
#*.host[9].nic.phy.initialRadioChannel = 12


[Config random-sensing]
*.node[0].appl.channelSelectionMode = "random"
*.node[0].appl.explorationRate_epsilon = 0
repeat = 1

[Config none]
*.node[0].appl.channelSelectionMode = "none"
*.node[0].appl.explorationRate_epsilon = 0
repeat = 1

[Config learning]
*.node[0].appl.channelSelectionMode = "learning"
*.node[0].appl.explorationRate_epsilon = 0.05
*.node[0].appl.learningRate_alpha = 0.1
*.node[0].appl.tripNo = ${repetition}
repeat = 1

[Config video-demo]
**.debug = false
**.sendDirect = false
**.coreDebug = false
**.recordVectors = false

repeat = 1

*.host[*].appl.packetsPerPacketTime = 0.1
*.host[*].appl.packetTime = 100s
*.host[*].appl.usePoissonArrival = false
#*.host[*].appl.mu = 0.02s

*.node[*].appl.sendBeacons = false
*.node[*].appl.sendData = false
*.node[*].appl.sendRelayMsg = false